/*--------------------------------*- C++ -*----------------------------------*\
| =========                 |                                                 |
| \\      /  F ield         | OpenFOAM: The Open Source CFD Toolbox           |
|  \\    /   O peration     | Version:  5                                     |
|   \\  /    A nd           | Web:      www.OpenFOAM.org                      |
|    \\/     M anipulation  |                                                 |
\*---------------------------------------------------------------------------*/
FoamFile
{
    version     2.0;
    format      ascii;
    class       dictionary;
    location    "system";
    object      controlDict;
}
// * * * * * * * * * * * * * * * * * * * * * * * * * * * * * * * * * * * * * //

libs            ("libOpenFOAM.so" "libfieldFunctionObjects.so");

application     pisoFoam;

startFrom       latestTime;

startTime       0;

stopAt          endTime;

endTime         455;  

deltaT          0.025;	// smallest deltax = 3E-4, so CFL condition: deltaT < deltax/U = 3E-4/0.01= 3E-2

writeControl    runTime;

writeInterval   1; 

purgeWrite      0;

writeFormat     binary;

writePrecision  7;  // 6

writeCompression off;

timeFormat      general;

timePrecision   6;

runTimeModifiable true;
functions
{
   forces
    {
        type            forceCoeffs;
        libs            ("libforces.so");
        writeControl    writeTime;
        writeInterval   1;
        patches         (HH);
        rho             rhoInf;
        log             true;
        rhoInf          1000;
        liftDir         (0 0 1);
        dragDir         (1 0 0);
        CofR            (0 0 0);
        pitchAxis       (0 0 1);
        magUInf         0.01;
        lRef            0.01;
        Aref            0.000284; //see /analysis/parameters.py
    }
}
}

// ************************************************************************* //
