/*--------------------------------*- C++ -*----------------------------------*\
| =========                 |                                                 |
| \\      /  F ield         | OpenFOAM: The Open Source CFD Toolbox           |
|  \\    /   O peration     | Version:  5                                     |
|   \\  /    A nd           | Web:      www.OpenFOAM.org                      |
|    \\/     M anipulation  |                                                 |
\*---------------------------------------------------------------------------*/
FoamFile
{
    version     2.0;
    format      ascii;
    class       dictionary;
    object      blockMeshDict;
}
// * * * * * * * * * * * * * * * * * * * * * * * * * * * * * * * * * * * * * //

convertToMeters 1;	//1

vertices
(
    (-0.12 -0.12 0)
    (0.3 -0.12 0)
    (0.3 0.12 0)
    (-0.12 0.12 0)
    (-0.12 -0.12 0.12)
    (0.3 -0.12 0.12)
    (0.3 0.12 0.12)
    (-0.12 0.12 0.12)
);

blocks
(
    hex (0 1 2 3 4 5 6 7) (196 112 56) simpleGrading (1 1 1)  //(180 120 80)
);

edges
(
);

boundary
(
    inlet // atmosphere
    {
        type patch;  //patch
        faces
        (
         
          (0 3 7 4)
        );
    }
    outlet
    {
        type patch;
        faces
        (        
          (1 2 6 5)
        );
    }
    sides
    {
        type symmetry;
        faces
        (
          (0 1 5 4)
          (4 5 6 7)
          (3 2 6 7)
        );
    }
    Bottom
    {
        type wall;
        faces
        (
            (0 1 2 3)
        );
    }
);
 

// ************************************************************************* //
